packages/bdgd2opendss/bdgd2opendss-1.0.1.tar.gz/bdgd2opendss-1.0.1/tests/dss_models_output/sub__/1_3PAS_1/CargasBT_SA01_202312598_1_3PAS_1_------1-----.dss
New "Load.BT_2806086_M1" bus1="UC2806086.1.4" phases=1 conn=Wye model=2 kv=0.220000000 kw = 0.000724 pf=0.92 status=variable vmaxpu=1.5 vminpu=0.6 daily="RU2_SA"  
New "Load.BT_2806086_M2" bus1="UC2806086.1.4" phases=1 conn=Wye model=3 kv=0.220000000 kw = 0.000724 pf=0.92 status=variable vmaxpu=1.5 vminpu=0.6 daily="RU2_SA" 
New "Load.BT_2805327_M1" bus1="UC2805327.1.4" phases=1 conn=Wye model=2 kv=0.220000000 kw = 0.2747865 pf=0.92 status=variable vmaxpu=1.5 vminpu=0.6 daily="RU5_SA"  
New "Load.BT_2805327_M2" bus1="UC2805327.1.4" phases=1 conn=Wye model=3 kv=0.220000000 kw = 0.2747865 pf=0.92 status=variable vmaxpu=1.5 vminpu=0.6 daily="RU5_SA" 
New "Load.BT_2830102_M1" bus1="UC2830102.1.4" phases=1 conn=Wye model=2 kv=0.220000000 kw = 0.177465 pf=0.92 status=variable vmaxpu=1.5 vminpu=0.6 daily="RU4_SA"  
New "Load.BT_2830102_M2" bus1="UC2830102.1.4" phases=1 conn=Wye model=3 kv=0.220000000 kw = 0.177465 pf=0.92 status=variable vmaxpu=1.5 vminpu=0.6 daily="RU4_SA" 
New "Load.BT_2836303_M1" bus1="UC2836303.1.4" phases=1 conn=Wye model=2 kv=0.220000000 kw = 0.3286785 pf=0.92 status=variable vmaxpu=1.5 vminpu=0.6 daily="RU6_SA"  
New "Load.BT_2836303_M2" bus1="UC2836303.1.4" phases=1 conn=Wye model=3 kv=0.220000000 kw = 0.3286785 pf=0.92 status=variable vmaxpu=1.5 vminpu=0.6 daily="RU6_SA" 
New "Load.BT_2834139_M1" bus1="UC2834139.1.2.4" phases=1 conn=Delta model=2 kv=0.440000000 kw = 0.044291 pf=0.92 status=variable vmaxpu=1.5 vminpu=0.6 daily="RU1_SA"  
New "Load.BT_2834139_M2" bus1="UC2834139.1.2.4" phases=1 conn=Delta model=3 kv=0.440000000 kw = 0.044291 pf=0.92 status=variable vmaxpu=1.5 vminpu=0.6 daily="RU1_SA" 
New "Load.BT_2805332_M1" bus1="UC2805332.1.2.4" phases=1 conn=Delta model=2 kv=0.440000000 kw = 0.3574375 pf=0.92 status=variable vmaxpu=1.5 vminpu=0.6 daily="RU6_SA"  
New "Load.BT_2805332_M2" bus1="UC2805332.1.2.4" phases=1 conn=Delta model=3 kv=0.440000000 kw = 0.3574375 pf=0.92 status=variable vmaxpu=1.5 vminpu=0.6 daily="RU6_SA" 
New "Load.BT_2807373_M1" bus1="UC2807373.2.4" phases=1 conn=Wye model=2 kv=0.220000000 kw = 0.2792115 pf=0.92 status=variable vmaxpu=1.5 vminpu=0.6 daily="RU4_SA"  
New "Load.BT_2807373_M2" bus1="UC2807373.2.4" phases=1 conn=Wye model=3 kv=0.220000000 kw = 0.2792115 pf=0.92 status=variable vmaxpu=1.5 vminpu=0.6 daily="RU4_SA" 
New "Load.BT_2818343_M1" bus1="UC2818343.2.4" phases=1 conn=Wye model=2 kv=0.219393102 kw = 0.2553115 pf=0.92 status=variable vmaxpu=1.5 vminpu=0.6 daily="RU7_SA"  
New "Load.BT_2818343_M2" bus1="UC2818343.2.4" phases=1 conn=Wye model=3 kv=0.219393102 kw = 0.2553115 pf=0.92 status=variable vmaxpu=1.5 vminpu=0.6 daily="RU7_SA" 
New "Load.BT_2805262_M1" bus1="UC2805262.1.4" phases=1 conn=Wye model=2 kv=0.220000000 kw = 0.1127055 pf=0.92 status=variable vmaxpu=1.5 vminpu=0.6 daily="RU5_SA"  
New "Load.BT_2805262_M2" bus1="UC2805262.1.4" phases=1 conn=Wye model=3 kv=0.220000000 kw = 0.1127055 pf=0.92 status=variable vmaxpu=1.5 vminpu=0.6 daily="RU5_SA" 
New "Load.BT_2826215_M1" bus1="UC2826215.1.4" phases=1 conn=Wye model=2 kv=0.219393102 kw = 0.3785655 pf=0.92 status=variable vmaxpu=1.5 vminpu=0.6 daily="RU7_SA"  
New "Load.BT_2826215_M2" bus1="UC2826215.1.4" phases=1 conn=Wye model=3 kv=0.219393102 kw = 0.3785655 pf=0.92 status=variable vmaxpu=1.5 vminpu=0.6 daily="RU7_SA" 
New "Load.BT_2805278_M1" bus1="UC2805278.2.4" phases=1 conn=Wye model=2 kv=0.220000000 kw = 0.020193 pf=0.92 status=variable vmaxpu=1.5 vminpu=0.6 daily="RU1_SA"  
New "Load.BT_2805278_M2" bus1="UC2805278.2.4" phases=1 conn=Wye model=3 kv=0.220000000 kw = 0.020193 pf=0.92 status=variable vmaxpu=1.5 vminpu=0.6 daily="RU1_SA" 
New "Load.BT_2817035_M1" bus1="UC2817035.2.4" phases=1 conn=Wye model=2 kv=0.220000000 kw = 0.014798 pf=0.92 status=variable vmaxpu=1.5 vminpu=0.6 daily="RU1_SA"  
New "Load.BT_2817035_M2" bus1="UC2817035.2.4" phases=1 conn=Wye model=3 kv=0.220000000 kw = 0.014798 pf=0.92 status=variable vmaxpu=1.5 vminpu=0.6 daily="RU1_SA" 
New "Load.BT_2818350_M1" bus1="UC2818350.1.2.3.4" phases=3 conn=Delta model=2 kv=0.380000000 kw = 4.431632 pf=0.92 status=variable vmaxpu=1.5 vminpu=0.6 daily="RE8_SA"  
New "Load.BT_2818350_M2" bus1="UC2818350.1.2.3.4" phases=3 conn=Delta model=3 kv=0.380000000 kw = 4.431632 pf=0.92 status=variable vmaxpu=1.5 vminpu=0.6 daily="RE8_SA" 
New "Load.BT_2805378_M1" bus1="UC2805378.1.4" phases=1 conn=Wye model=2 kv=0.220000000 kw = 0.6231195 pf=0.92 status=variable vmaxpu=1.5 vminpu=0.6 daily="RU6_SA"  
New "Load.BT_2805378_M2" bus1="UC2805378.1.4" phases=1 conn=Wye model=3 kv=0.220000000 kw = 0.6231195 pf=0.92 status=variable vmaxpu=1.5 vminpu=0.6 daily="RU6_SA" 
New "Load.BT_2805372_M1" bus1="UC2805372.2.4" phases=1 conn=Wye model=2 kv=0.220000000 kw = 0.1794035 pf=0.92 status=variable vmaxpu=1.5 vminpu=0.6 daily="RU6_SA"  
New "Load.BT_2805372_M2" bus1="UC2805372.2.4" phases=1 conn=Wye model=3 kv=0.220000000 kw = 0.1794035 pf=0.92 status=variable vmaxpu=1.5 vminpu=0.6 daily="RU6_SA" 
New "Load.BT_2805353_M1" bus1="UC2805353.1.4" phases=1 conn=Wye model=2 kv=0.220000000 kw = 0.277321 pf=0.92 status=variable vmaxpu=1.5 vminpu=0.6 daily="RU7_SA"  
New "Load.BT_2805353_M2" bus1="UC2805353.1.4" phases=1 conn=Wye model=3 kv=0.220000000 kw = 0.277321 pf=0.92 status=variable vmaxpu=1.5 vminpu=0.6 daily="RU7_SA" 
New "Load.BT_2805390_M1" bus1="UC2805390.1.2.4" phases=1 conn=Delta model=2 kv=0.440000000 kw = 0.4642585 pf=0.92 status=variable vmaxpu=1.5 vminpu=0.6 daily="RU6_SA"  
New "Load.BT_2805390_M2" bus1="UC2805390.1.2.4" phases=1 conn=Delta model=3 kv=0.440000000 kw = 0.4642585 pf=0.92 status=variable vmaxpu=1.5 vminpu=0.6 daily="RU6_SA" 
New "Load.BT_2806072_M1" bus1="UC2806072.1.4" phases=1 conn=Wye model=2 kv=0.220000000 kw = 0.103045 pf=0.92 status=variable vmaxpu=1.5 vminpu=0.6 daily="RU5_SA"  
New "Load.BT_2806072_M2" bus1="UC2806072.1.4" phases=1 conn=Wye model=3 kv=0.220000000 kw = 0.103045 pf=0.92 status=variable vmaxpu=1.5 vminpu=0.6 daily="RU5_SA" 
New "Load.BT_2819400_M1" bus1="UC2819400.2.4" phases=1 conn=Wye model=2 kv=0.220000000 kw = 0.244732 pf=0.92 status=variable vmaxpu=1.5 vminpu=0.6 daily="RU5_SA"  
New "Load.BT_2819400_M2" bus1="UC2819400.2.4" phases=1 conn=Wye model=3 kv=0.220000000 kw = 0.244732 pf=0.92 status=variable vmaxpu=1.5 vminpu=0.6 daily="RU5_SA" 
New "Load.BT_2805341_M1" bus1="UC2805341.1.2.4" phases=1 conn=Delta model=2 kv=0.440000000 kw = 0.283374 pf=0.92 status=variable vmaxpu=1.5 vminpu=0.6 daily="RU5_SA"  
New "Load.BT_2805341_M2" bus1="UC2805341.1.2.4" phases=1 conn=Delta model=3 kv=0.440000000 kw = 0.283374 pf=0.92 status=variable vmaxpu=1.5 vminpu=0.6 daily="RU5_SA" 
New "Load.BT_2805345_M1" bus1="UC2805345.1.4" phases=1 conn=Wye model=2 kv=0.220000000 kw = 0.353747 pf=0.92 status=variable vmaxpu=1.5 vminpu=0.6 daily="RU4_SA"  
New "Load.BT_2805345_M2" bus1="UC2805345.1.4" phases=1 conn=Wye model=3 kv=0.220000000 kw = 0.353747 pf=0.92 status=variable vmaxpu=1.5 vminpu=0.6 daily="RU4_SA" 
New "Load.BT_2805244_M1" bus1="UC2805244.1.2.4" phases=1 conn=Delta model=2 kv=0.440000000 kw = 0.0269755 pf=0.92 status=variable vmaxpu=1.5 vminpu=0.6 daily="RU1_SA"  
New "Load.BT_2805244_M2" bus1="UC2805244.1.2.4" phases=1 conn=Delta model=3 kv=0.440000000 kw = 0.0269755 pf=0.92 status=variable vmaxpu=1.5 vminpu=0.6 daily="RU1_SA" 
New "Load.BT_2805410_M1" bus1="UC2805410.2.4" phases=1 conn=Wye model=2 kv=0.220000000 kw = 0.0066795 pf=0.92 status=variable vmaxpu=1.5 vminpu=0.6 daily="RU1_SA"  
New "Load.BT_2805410_M2" bus1="UC2805410.2.4" phases=1 conn=Wye model=3 kv=0.220000000 kw = 0.0066795 pf=0.92 status=variable vmaxpu=1.5 vminpu=0.6 daily="RU1_SA" 
New "Load.BT_2805776_M1" bus1="UC2805776.2.4" phases=1 conn=Wye model=2 kv=0.220000000 kw = 0.012671 pf=0.92 status=variable vmaxpu=1.5 vminpu=0.6 daily="RU2_SA"  
New "Load.BT_2805776_M2" bus1="UC2805776.2.4" phases=1 conn=Wye model=3 kv=0.220000000 kw = 0.012671 pf=0.92 status=variable vmaxpu=1.5 vminpu=0.6 daily="RU2_SA" 
New "Load.BT_2805421_M1" bus1="UC2805421.1.4" phases=1 conn=Wye model=2 kv=0.219393102 kw = 0.3853455 pf=0.92 status=variable vmaxpu=1.5 vminpu=0.6 daily="RU5_SA"  
New "Load.BT_2805421_M2" bus1="UC2805421.1.4" phases=1 conn=Wye model=3 kv=0.219393102 kw = 0.3853455 pf=0.92 status=variable vmaxpu=1.5 vminpu=0.6 daily="RU5_SA" 
New "Load.BT_2805426_M1" bus1="UC2805426.1.4" phases=1 conn=Wye model=2 kv=0.219393102 kw = 0.2123925 pf=0.92 status=variable vmaxpu=1.5 vminpu=0.6 daily="RU7_SA"  
New "Load.BT_2805426_M2" bus1="UC2805426.1.4" phases=1 conn=Wye model=3 kv=0.219393102 kw = 0.2123925 pf=0.92 status=variable vmaxpu=1.5 vminpu=0.6 daily="RU7_SA" 
New "Load.BT_2805220_M1" bus1="UC2805220.2.4" phases=1 conn=Wye model=2 kv=0.220000000 kw = 0.2050165 pf=0.92 status=variable vmaxpu=1.5 vminpu=0.6 daily="RU5_SA"  
New "Load.BT_2805220_M2" bus1="UC2805220.2.4" phases=1 conn=Wye model=3 kv=0.220000000 kw = 0.2050165 pf=0.92 status=variable vmaxpu=1.5 vminpu=0.6 daily="RU5_SA" 
New "Load.BT_2805266_M1" bus1="UC2805266.1.2.3.4" phases=3 conn=Delta model=2 kv=0.380000000 kw = 0.350997 pf=0.92 status=variable vmaxpu=1.5 vminpu=0.6 daily="RU5_SA"  
New "Load.BT_2805266_M2" bus1="UC2805266.1.2.3.4" phases=3 conn=Delta model=3 kv=0.380000000 kw = 0.350997 pf=0.92 status=variable vmaxpu=1.5 vminpu=0.6 daily="RU5_SA" 
New "Load.BT_2817049_M1" bus1="UC2817049.3.4" phases=1 conn=Wye model=2 kv=0.219393102 kw = 0.088333 pf=0.92 status=variable vmaxpu=1.5 vminpu=0.6 daily="RU8_SA"  
New "Load.BT_2817049_M2" bus1="UC2817049.3.4" phases=1 conn=Wye model=3 kv=0.219393102 kw = 0.088333 pf=0.92 status=variable vmaxpu=1.5 vminpu=0.6 daily="RU8_SA" 
New "Load.BT_2805218_M1" bus1="UC2805218.1.2.4" phases=1 conn=Delta model=2 kv=0.440000000 kw = 0.285892 pf=0.92 status=variable vmaxpu=1.5 vminpu=0.6 daily="RU3_SA"  
New "Load.BT_2805218_M2" bus1="UC2805218.1.2.4" phases=1 conn=Delta model=3 kv=0.440000000 kw = 0.285892 pf=0.92 status=variable vmaxpu=1.5 vminpu=0.6 daily="RU3_SA" 
New "Load.BT_2826225_M1" bus1="UC2826225.1.2.3.4" phases=3 conn=Delta model=2 kv=0.380000000 kw = 0.188182 pf=0.92 status=variable vmaxpu=1.5 vminpu=0.6 daily="RU7_SA"  
New "Load.BT_2826225_M2" bus1="UC2826225.1.2.3.4" phases=3 conn=Delta model=3 kv=0.380000000 kw = 0.188182 pf=0.92 status=variable vmaxpu=1.5 vminpu=0.6 daily="RU7_SA" 
New "Load.BT_2817022_M1" bus1="UC2817022.2.4" phases=1 conn=Wye model=2 kv=0.219393102 kw = 0.341326 pf=0.92 status=variable vmaxpu=1.5 vminpu=0.6 daily="RE6_SA"  
New "Load.BT_2817022_M2" bus1="UC2817022.2.4" phases=1 conn=Wye model=3 kv=0.219393102 kw = 0.341326 pf=0.92 status=variable vmaxpu=1.5 vminpu=0.6 daily="RE6_SA" 
New "Load.BT_2832901_M1" bus1="UC2832901.1.4" phases=1 conn=Wye model=2 kv=0.220000000 kw = 0.0385325 pf=0.92 status=variable vmaxpu=1.5 vminpu=0.6 daily="CO6_SA"  
New "Load.BT_2832901_M2" bus1="UC2832901.1.4" phases=1 conn=Wye model=3 kv=0.220000000 kw = 0.0385325 pf=0.92 status=variable vmaxpu=1.5 vminpu=0.6 daily="CO6_SA" 
New "Load.BT_2838192_M1" bus1="UC2838192.1.4" phases=1 conn=Wye model=2 kv=0.219393102 kw = 0.156608 pf=0.92 status=variable vmaxpu=1.5 vminpu=0.6 daily="RE5_SA"  
New "Load.BT_2838192_M2" bus1="UC2838192.1.4" phases=1 conn=Wye model=3 kv=0.219393102 kw = 0.156608 pf=0.92 status=variable vmaxpu=1.5 vminpu=0.6 daily="RE5_SA" 
New "Load.BT_2806076_M1" bus1="UC2806076.2.4" phases=1 conn=Wye model=2 kv=0.220000000 kw = 0.725168 pf=0.92 status=variable vmaxpu=1.5 vminpu=0.6 daily="RU3_SA"  
New "Load.BT_2806076_M2" bus1="UC2806076.2.4" phases=1 conn=Wye model=3 kv=0.220000000 kw = 0.725168 pf=0.92 status=variable vmaxpu=1.5 vminpu=0.6 daily="RU3_SA" 
New "Load.BT_2805391_M1" bus1="UC2805391.1.4" phases=1 conn=Wye model=2 kv=0.220000000 kw = 0.011047 pf=0.92 status=variable vmaxpu=1.5 vminpu=0.6 daily="RU1_SA"  
New "Load.BT_2805391_M2" bus1="UC2805391.1.4" phases=1 conn=Wye model=3 kv=0.220000000 kw = 0.011047 pf=0.92 status=variable vmaxpu=1.5 vminpu=0.6 daily="RU1_SA" 
New "Load.BT_2805329_M1" bus1="UC2805329.1.4" phases=1 conn=Wye model=2 kv=0.220000000 kw = 0.3478515 pf=0.92 status=variable vmaxpu=1.5 vminpu=0.6 daily="RU6_SA"  
New "Load.BT_2805329_M2" bus1="UC2805329.1.4" phases=1 conn=Wye model=3 kv=0.220000000 kw = 0.3478515 pf=0.92 status=variable vmaxpu=1.5 vminpu=0.6 daily="RU6_SA" 
New "Load.BT_2834953_M1" bus1="UC2834953.3.4" phases=1 conn=Wye model=2 kv=0.219393102 kw = 0.012023 pf=0.92 status=variable vmaxpu=1.5 vminpu=0.6 daily="RU1_SA"  
New "Load.BT_2834953_M2" bus1="UC2834953.3.4" phases=1 conn=Wye model=3 kv=0.219393102 kw = 0.012023 pf=0.92 status=variable vmaxpu=1.5 vminpu=0.6 daily="RU1_SA" 
New "Load.BT_2831809_M1" bus1="UC2831809.1.2.3.4" phases=3 conn=Delta model=2 kv=0.380000000 kw = 1.5415575 pf=0.92 status=variable vmaxpu=1.5 vminpu=0.6 daily="RU8_SA"  
New "Load.BT_2831809_M2" bus1="UC2831809.1.2.3.4" phases=3 conn=Delta model=3 kv=0.380000000 kw = 1.5415575 pf=0.92 status=variable vmaxpu=1.5 vminpu=0.6 daily="RU8_SA" 
New "Load.BT_2805792_M1" bus1="UC2805792.1.4" phases=1 conn=Wye model=2 kv=0.219393102 kw = 0.020998 pf=0.92 status=variable vmaxpu=1.5 vminpu=0.6 daily="RU2_SA"  
New "Load.BT_2805792_M2" bus1="UC2805792.1.4" phases=1 conn=Wye model=3 kv=0.219393102 kw = 0.020998 pf=0.92 status=variable vmaxpu=1.5 vminpu=0.6 daily="RU2_SA" 
New "Load.BT_2805230_M1" bus1="UC2805230.2.4" phases=1 conn=Wye model=2 kv=0.220000000 kw = 0.0510475 pf=0.92 status=variable vmaxpu=1.5 vminpu=0.6 daily="RU2_SA"  
New "Load.BT_2805230_M2" bus1="UC2805230.2.4" phases=1 conn=Wye model=3 kv=0.220000000 kw = 0.0510475 pf=0.92 status=variable vmaxpu=1.5 vminpu=0.6 daily="RU2_SA" 
New "Load.BT_2821681_M1" bus1="UC2821681.1.4" phases=1 conn=Wye model=2 kv=0.219393102 kw = 0.1869645 pf=0.92 status=variable vmaxpu=1.5 vminpu=0.6 daily="RU3_SA"  
New "Load.BT_2821681_M2" bus1="UC2821681.1.4" phases=1 conn=Wye model=3 kv=0.219393102 kw = 0.1869645 pf=0.92 status=variable vmaxpu=1.5 vminpu=0.6 daily="RU3_SA" 
New "Load.BT_2818310_M1" bus1="UC2818310.1.4" phases=1 conn=Wye model=2 kv=0.220000000 kw = 0.5161255 pf=0.92 status=variable vmaxpu=1.5 vminpu=0.6 daily="RU7_SA"  
New "Load.BT_2818310_M2" bus1="UC2818310.1.4" phases=1 conn=Wye model=3 kv=0.220000000 kw = 0.5161255 pf=0.92 status=variable vmaxpu=1.5 vminpu=0.6 daily="RU7_SA" 
New "Load.BT_2837351_M1" bus1="UC2837351.1.2.3.4" phases=3 conn=Delta model=2 kv=0.380000000 kw = 0.7073615 pf=0.92 status=variable vmaxpu=1.5 vminpu=0.6 daily="RU5_SA"  
New "Load.BT_2837351_M2" bus1="UC2837351.1.2.3.4" phases=3 conn=Delta model=3 kv=0.380000000 kw = 0.7073615 pf=0.92 status=variable vmaxpu=1.5 vminpu=0.6 daily="RU5_SA" 
New "Load.BT_2828396_M1" bus1="UC2828396.1.4" phases=1 conn=Wye model=2 kv=0.220000000 kw = 0.0778385 pf=0.92 status=variable vmaxpu=1.5 vminpu=0.6 daily="RU2_SA"  
New "Load.BT_2828396_M2" bus1="UC2828396.1.4" phases=1 conn=Wye model=3 kv=0.220000000 kw = 0.0778385 pf=0.92 status=variable vmaxpu=1.5 vminpu=0.6 daily="RU2_SA" 
New "Load.BT_2825299_M1" bus1="UC2825299.1.4" phases=1 conn=Wye model=2 kv=0.220000000 kw = 0.5456715 pf=0.92 status=variable vmaxpu=1.5 vminpu=0.6 daily="RU8_SA"  
New "Load.BT_2825299_M2" bus1="UC2825299.1.4" phases=1 conn=Wye model=3 kv=0.220000000 kw = 0.5456715 pf=0.92 status=variable vmaxpu=1.5 vminpu=0.6 daily="RU8_SA" 
New "Load.BT_2819372_M1" bus1="UC2819372.2.4" phases=1 conn=Wye model=2 kv=0.220000000 kw = 0.498655 pf=0.92 status=variable vmaxpu=1.5 vminpu=0.6 daily="RU8_SA"  
New "Load.BT_2819372_M2" bus1="UC2819372.2.4" phases=1 conn=Wye model=3 kv=0.220000000 kw = 0.498655 pf=0.92 status=variable vmaxpu=1.5 vminpu=0.6 daily="RU8_SA" 
New "Load.BT_2820643_M1" bus1="UC2820643.2.4" phases=1 conn=Wye model=2 kv=0.220000000 kw = 0.1878425 pf=0.92 status=variable vmaxpu=1.5 vminpu=0.6 daily="RU5_SA"  
New "Load.BT_2820643_M2" bus1="UC2820643.2.4" phases=1 conn=Wye model=3 kv=0.220000000 kw = 0.1878425 pf=0.92 status=variable vmaxpu=1.5 vminpu=0.6 daily="RU5_SA" 
New "Load.BT_2805351_M1" bus1="UC2805351.1.4" phases=1 conn=Wye model=2 kv=0.220000000 kw = 0.5456715 pf=0.92 status=variable vmaxpu=1.5 vminpu=0.6 daily="RU8_SA"  
New "Load.BT_2805351_M2" bus1="UC2805351.1.4" phases=1 conn=Wye model=3 kv=0.220000000 kw = 0.5456715 pf=0.92 status=variable vmaxpu=1.5 vminpu=0.6 daily="RU8_SA" 
New "Load.BT_2818334_M1" bus1="UC2818334.1.2.3.4" phases=3 conn=Delta model=2 kv=0.380000000 kw = 1.7618705 pf=0.92 status=variable vmaxpu=1.5 vminpu=0.6 daily="RU7_SA"  
New "Load.BT_2818334_M2" bus1="UC2818334.1.2.3.4" phases=3 conn=Delta model=3 kv=0.380000000 kw = 1.7618705 pf=0.92 status=variable vmaxpu=1.5 vminpu=0.6 daily="RU7_SA" 
New "Load.BT_2819397_M1" bus1="UC2819397.1.4" phases=1 conn=Wye model=2 kv=0.219393102 kw = 0.8647505 pf=0.92 status=variable vmaxpu=1.5 vminpu=0.6 daily="RE5_SA"  
New "Load.BT_2819397_M2" bus1="UC2819397.1.4" phases=1 conn=Wye model=3 kv=0.219393102 kw = 0.8647505 pf=0.92 status=variable vmaxpu=1.5 vminpu=0.6 daily="RE5_SA" 
New "Load.BT_2818317_M1" bus1="UC2818317.1.2.4" phases=1 conn=Delta model=2 kv=0.440000000 kw = 0.75733 pf=0.92 status=variable vmaxpu=1.5 vminpu=0.6 daily="RU6_SA"  
New "Load.BT_2818317_M2" bus1="UC2818317.1.2.4" phases=1 conn=Delta model=3 kv=0.440000000 kw = 0.75733 pf=0.92 status=variable vmaxpu=1.5 vminpu=0.6 daily="RU6_SA" 
New "Load.BT_2836678_M1" bus1="UC2836678.2.4" phases=1 conn=Wye model=2 kv=0.220000000 kw = 0.3383665 pf=0.92 status=variable vmaxpu=1.5 vminpu=0.6 daily="RU4_SA"  
New "Load.BT_2836678_M2" bus1="UC2836678.2.4" phases=1 conn=Wye model=3 kv=0.220000000 kw = 0.3383665 pf=0.92 status=variable vmaxpu=1.5 vminpu=0.6 daily="RU4_SA" 
New "Load.BT_2805228_M1" bus1="UC2805228.1.4" phases=1 conn=Wye model=2 kv=0.220000000 kw = 0.1390235 pf=0.92 status=variable vmaxpu=1.5 vminpu=0.6 daily="RU2_SA"  
New "Load.BT_2805228_M2" bus1="UC2805228.1.4" phases=1 conn=Wye model=3 kv=0.220000000 kw = 0.1390235 pf=0.92 status=variable vmaxpu=1.5 vminpu=0.6 daily="RU2_SA" 
New "Load.BT_2805232_M1" bus1="UC2805232.1.2.3.4" phases=3 conn=Delta model=2 kv=0.380000000 kw = 1.474945 pf=0.92 status=variable vmaxpu=1.5 vminpu=0.6 daily="RU6_SA"  
New "Load.BT_2805232_M2" bus1="UC2805232.1.2.3.4" phases=3 conn=Delta model=3 kv=0.380000000 kw = 1.474945 pf=0.92 status=variable vmaxpu=1.5 vminpu=0.6 daily="RU6_SA" 
New "Load.BT_2838196_M1" bus1="UC2838196.1.4" phases=1 conn=Wye model=2 kv=0.219393102 kw = 0.0652675 pf=0.92 status=variable vmaxpu=1.5 vminpu=0.6 daily="RE4_SA"  
New "Load.BT_2838196_M2" bus1="UC2838196.1.4" phases=1 conn=Wye model=3 kv=0.219393102 kw = 0.0652675 pf=0.92 status=variable vmaxpu=1.5 vminpu=0.6 daily="RE4_SA" 
New "Load.BT_2805241_M1" bus1="UC2805241.1.4" phases=1 conn=Wye model=2 kv=0.219393102 kw = 0.464958 pf=0.92 status=variable vmaxpu=1.5 vminpu=0.6 daily="RU4_SA"  
New "Load.BT_2805241_M2" bus1="UC2805241.1.4" phases=1 conn=Wye model=3 kv=0.219393102 kw = 0.464958 pf=0.92 status=variable vmaxpu=1.5 vminpu=0.6 daily="RU4_SA" 
New "Load.BT_2818345_M1" bus1="UC2818345.1.4" phases=1 conn=Wye model=2 kv=0.220000000 kw = 0.034525 pf=0.92 status=variable vmaxpu=1.5 vminpu=0.6 daily="RE1_SA"  
New "Load.BT_2818345_M2" bus1="UC2818345.1.4" phases=1 conn=Wye model=3 kv=0.220000000 kw = 0.034525 pf=0.92 status=variable vmaxpu=1.5 vminpu=0.6 daily="RE1_SA" 
New "Load.BT_2836301_M1" bus1="UC2836301.1.2.4" phases=1 conn=Delta model=2 kv=0.380000000 kw = 0.5485205 pf=0.92 status=variable vmaxpu=1.5 vminpu=0.6 daily="RU8_SA"  
New "Load.BT_2836301_M2" bus1="UC2836301.1.2.4" phases=1 conn=Delta model=3 kv=0.380000000 kw = 0.5485205 pf=0.92 status=variable vmaxpu=1.5 vminpu=0.6 daily="RU8_SA" 
New "Load.BT_2805229_M1" bus1="UC2805229.2.4" phases=1 conn=Wye model=2 kv=0.220000000 kw = 0.1024575 pf=0.92 status=variable vmaxpu=1.5 vminpu=0.6 daily="RU2_SA"  
New "Load.BT_2805229_M2" bus1="UC2805229.2.4" phases=1 conn=Wye model=3 kv=0.220000000 kw = 0.1024575 pf=0.92 status=variable vmaxpu=1.5 vminpu=0.6 daily="RU2_SA" 
New "Load.BT_2805294_M1" bus1="UC2805294.1.2.4" phases=1 conn=Delta model=2 kv=0.440000000 kw = 0.10119 pf=0.92 status=variable vmaxpu=1.5 vminpu=0.6 daily="CO2_SA"  
New "Load.BT_2805294_M2" bus1="UC2805294.1.2.4" phases=1 conn=Delta model=3 kv=0.440000000 kw = 0.10119 pf=0.92 status=variable vmaxpu=1.5 vminpu=0.6 daily="CO2_SA" 
New "Load.BT_2805281_M1" bus1="UC2805281.1.2.4" phases=1 conn=Delta model=2 kv=0.440000000 kw = 0.7093975 pf=0.92 status=variable vmaxpu=1.5 vminpu=0.6 daily="RU6_SA"  
New "Load.BT_2805281_M2" bus1="UC2805281.1.2.4" phases=1 conn=Delta model=3 kv=0.440000000 kw = 0.7093975 pf=0.92 status=variable vmaxpu=1.5 vminpu=0.6 daily="RU6_SA" 
New "Load.BT_2837357_M1" bus1="UC2837357.1.4" phases=1 conn=Wye model=2 kv=0.220000000 kw = 0.042454 pf=0.92 status=variable vmaxpu=1.5 vminpu=0.6 daily="RU6_SA"  
New "Load.BT_2837357_M2" bus1="UC2837357.1.4" phases=1 conn=Wye model=3 kv=0.220000000 kw = 0.042454 pf=0.92 status=variable vmaxpu=1.5 vminpu=0.6 daily="RU6_SA" 
New "Load.BT_2805430_M1" bus1="UC2805430.2.4" phases=1 conn=Wye model=2 kv=0.220000000 kw = 0.2094085 pf=0.92 status=variable vmaxpu=1.5 vminpu=0.6 daily="RU4_SA"  
New "Load.BT_2805430_M2" bus1="UC2805430.2.4" phases=1 conn=Wye model=3 kv=0.220000000 kw = 0.2094085 pf=0.92 status=variable vmaxpu=1.5 vminpu=0.6 daily="RU4_SA" 
New "Load.BT_2825298_M1" bus1="UC2825298.2.4" phases=1 conn=Wye model=2 kv=0.220000000 kw = 0.1041125 pf=0.92 status=variable vmaxpu=1.5 vminpu=0.6 daily="RU4_SA"  
New "Load.BT_2825298_M2" bus1="UC2825298.2.4" phases=1 conn=Wye model=3 kv=0.220000000 kw = 0.1041125 pf=0.92 status=variable vmaxpu=1.5 vminpu=0.6 daily="RU4_SA" 
New "Load.BT_2825849_M1" bus1="UC2825849.1.4" phases=1 conn=Wye model=2 kv=0.219393102 kw = 0.2025475 pf=0.92 status=variable vmaxpu=1.5 vminpu=0.6 daily="RE3_SA"  
New "Load.BT_2825849_M2" bus1="UC2825849.1.4" phases=1 conn=Wye model=3 kv=0.219393102 kw = 0.2025475 pf=0.92 status=variable vmaxpu=1.5 vminpu=0.6 daily="RE3_SA" 
New "Load.BT_2821694_M1" bus1="UC2821694.1.4" phases=1 conn=Wye model=2 kv=0.220000000 kw = 1.033968 pf=0.92 status=variable vmaxpu=1.5 vminpu=0.6 daily="RU6_SA"  
New "Load.BT_2821694_M2" bus1="UC2821694.1.4" phases=1 conn=Wye model=3 kv=0.220000000 kw = 1.033968 pf=0.92 status=variable vmaxpu=1.5 vminpu=0.6 daily="RU6_SA" 
New "Load.BT_2818331_M1" bus1="UC2818331.1.4" phases=1 conn=Wye model=2 kv=0.219393102 kw = 0.205116 pf=0.92 status=variable vmaxpu=1.5 vminpu=0.6 daily="RU3_SA"  
New "Load.BT_2818331_M2" bus1="UC2818331.1.4" phases=1 conn=Wye model=3 kv=0.219393102 kw = 0.205116 pf=0.92 status=variable vmaxpu=1.5 vminpu=0.6 daily="RU3_SA" 
New "Load.BT_2825862_M1" bus1="UC2825862.1.2.4" phases=1 conn=Delta model=2 kv=0.440000000 kw = 0.0792345 pf=0.92 status=variable vmaxpu=1.5 vminpu=0.6 daily="RU7_SA"  
New "Load.BT_2825862_M2" bus1="UC2825862.1.2.4" phases=1 conn=Delta model=3 kv=0.440000000 kw = 0.0792345 pf=0.92 status=variable vmaxpu=1.5 vminpu=0.6 daily="RU7_SA" 
New "Load.BT_2805207_M1" bus1="UC2805207.1.4" phases=1 conn=Wye model=2 kv=0.220000000 kw = 0.0744225 pf=0.92 status=variable vmaxpu=1.5 vminpu=0.6 daily="RU3_SA"  
New "Load.BT_2805207_M2" bus1="UC2805207.1.4" phases=1 conn=Wye model=3 kv=0.220000000 kw = 0.0744225 pf=0.92 status=variable vmaxpu=1.5 vminpu=0.6 daily="RU3_SA" 
New "Load.BT_2805369_M1" bus1="UC2805369.2.4" phases=1 conn=Wye model=2 kv=0.220000000 kw = 0.0934065 pf=0.92 status=variable vmaxpu=1.5 vminpu=0.6 daily="RU2_SA"  
New "Load.BT_2805369_M2" bus1="UC2805369.2.4" phases=1 conn=Wye model=3 kv=0.220000000 kw = 0.0934065 pf=0.92 status=variable vmaxpu=1.5 vminpu=0.6 daily="RU2_SA" 
New "Load.BT_2805306_M1" bus1="UC2805306.1.2.4" phases=1 conn=Delta model=2 kv=0.440000000 kw = 0.0167505 pf=0.92 status=variable vmaxpu=1.5 vminpu=0.6 daily="RU1_SA"  
New "Load.BT_2805306_M2" bus1="UC2805306.1.2.4" phases=1 conn=Delta model=3 kv=0.440000000 kw = 0.0167505 pf=0.92 status=variable vmaxpu=1.5 vminpu=0.6 daily="RU1_SA" 

New "Load.BT_2836487_M1" bus1="UC2836487.2.4" phases=1 conn=Wye model=2 kv=0.219393102 kw = 0.2932715 pf=0.92 status=variable vmaxpu=1.5 vminpu=0.6 daily="RE3_SA"  
New "Load.BT_2836487_M2" bus1="UC2836487.2.4" phases=1 conn=Wye model=3 kv=0.219393102 kw = 0.2932715 pf=0.92 status=variable vmaxpu=1.5 vminpu=0.6 daily="RE3_SA" 
New "Load.BT_2805295_M1" bus1="UC2805295.2.4" phases=1 conn=Wye model=2 kv=0.219393102 kw = 0.319473 pf=0.92 status=variable vmaxpu=1.5 vminpu=0.6 daily="RU3_SA"  
New "Load.BT_2805295_M2" bus1="UC2805295.2.4" phases=1 conn=Wye model=3 kv=0.219393102 kw = 0.319473 pf=0.92 status=variable vmaxpu=1.5 vminpu=0.6 daily="RU3_SA" 
New "Load.BT_2805260_M1" bus1="UC2805260.1.2.4" phases=1 conn=Delta model=2 kv=0.440000000 kw = 0.209984 pf=0.92 status=variable vmaxpu=1.5 vminpu=0.6 daily="RU2_SA"  
New "Load.BT_2805260_M2" bus1="UC2805260.1.2.4" phases=1 conn=Delta model=3 kv=0.440000000 kw = 0.209984 pf=0.92 status=variable vmaxpu=1.5 vminpu=0.6 daily="RU2_SA" 
New "Load.BT_2819368_M1" bus1="UC2819368.1.4" phases=1 conn=Wye model=2 kv=0.220000000 kw = 0.219408 pf=0.92 status=variable vmaxpu=1.5 vminpu=0.6 daily="RU8_SA"  
New "Load.BT_2819368_M2" bus1="UC2819368.1.4" phases=1 conn=Wye model=3 kv=0.220000000 kw = 0.219408 pf=0.92 status=variable vmaxpu=1.5 vminpu=0.6 daily="RU8_SA" 
New "Load.BT_2821699_M1" bus1="UC2821699.1.4" phases=1 conn=Wye model=2 kv=0.220000000 kw = 0.398924 pf=0.92 status=variable vmaxpu=1.5 vminpu=0.6 daily="RU8_SA"  
New "Load.BT_2821699_M2" bus1="UC2821699.1.4" phases=1 conn=Wye model=3 kv=0.220000000 kw = 0.398924 pf=0.92 status=variable vmaxpu=1.5 vminpu=0.6 daily="RU8_SA" 
New "Load.BT_2827095_M1" bus1="UC2827095.1.4" phases=1 conn=Wye model=2 kv=0.220000000 kw = 0.205424 pf=0.92 status=variable vmaxpu=1.5 vminpu=0.6 daily="RU6_SA"  
New "Load.BT_2827095_M2" bus1="UC2827095.1.4" phases=1 conn=Wye model=3 kv=0.220000000 kw = 0.205424 pf=0.92 status=variable vmaxpu=1.5 vminpu=0.6 daily="RU6_SA" 
New "Load.BT_2805296_M1" bus1="UC2805296.1.4" phases=1 conn=Wye model=2 kv=0.220000000 kw = 0.2460845 pf=0.92 status=variable vmaxpu=1.5 vminpu=0.6 daily="RU4_SA"  
New "Load.BT_2805296_M2" bus1="UC2805296.1.4" phases=1 conn=Wye model=3 kv=0.220000000 kw = 0.2460845 pf=0.92 status=variable vmaxpu=1.5 vminpu=0.6 daily="RU4_SA" 
New "Load.BT_2831489_M1" bus1="UC2831489.1.4" phases=1 conn=Wye model=2 kv=0.220000000 kw = 0.05341 pf=0.92 status=variable vmaxpu=1.5 vminpu=0.6 daily="RU6_SA"  
New "Load.BT_2831489_M2" bus1="UC2831489.1.4" phases=1 conn=Wye model=3 kv=0.220000000 kw = 0.05341 pf=0.92 status=variable vmaxpu=1.5 vminpu=0.6 daily="RU6_SA" 
New "Load.BT_2805333_M1" bus1="UC2805333.1.4" phases=1 conn=Wye model=2 kv=0.220000000 kw = 0.098475 pf=0.92 status=variable vmaxpu=1.5 vminpu=0.6 daily="RU2_SA"  
New "Load.BT_2805333_M2" bus1="UC2805333.1.4" phases=1 conn=Wye model=3 kv=0.220000000 kw = 0.098475 pf=0.92 status=variable vmaxpu=1.5 vminpu=0.6 daily="RU2_SA" 
New "Load.BT_2805215_M1" bus1="UC2805215.2.4" phases=1 conn=Wye model=2 kv=0.220000000 kw = 0.966593 pf=0.92 status=variable vmaxpu=1.5 vminpu=0.6 daily="RU4_SA"  
New "Load.BT_2805215_M2" bus1="UC2805215.2.4" phases=1 conn=Wye model=3 kv=0.220000000 kw = 0.966593 pf=0.92 status=variable vmaxpu=1.5 vminpu=0.6 daily="RU4_SA" 
New "Load.BT_2838202_M1" bus1="UC2838202.1.4" phases=1 conn=Wye model=2 kv=0.220000000 kw = 0.2989685 pf=0.92 status=variable vmaxpu=1.5 vminpu=0.6 daily="RE4_SA"  
New "Load.BT_2838202_M2" bus1="UC2838202.1.4" phases=1 conn=Wye model=3 kv=0.220000000 kw = 0.2989685 pf=0.92 status=variable vmaxpu=1.5 vminpu=0.6 daily="RE4_SA" 
New "Load.BT_2834960_M1" bus1="UC2834960.1.2.3.4" phases=3 conn=Delta model=2 kv=0.380000000 kw = 0.4830235 pf=0.92 status=variable vmaxpu=1.5 vminpu=0.6 daily="RU5_SA"  
New "Load.BT_2834960_M2" bus1="UC2834960.1.2.3.4" phases=3 conn=Delta model=3 kv=0.380000000 kw = 0.4830235 pf=0.92 status=variable vmaxpu=1.5 vminpu=0.6 daily="RU5_SA" 
New "Load.BT_2817019_M1" bus1="UC2817019.2.4" phases=1 conn=Wye model=2 kv=0.220000000 kw = 0.6223105 pf=0.92 status=variable vmaxpu=1.5 vminpu=0.6 daily="RU4_SA"  
New "Load.BT_2817019_M2" bus1="UC2817019.2.4" phases=1 conn=Wye model=3 kv=0.220000000 kw = 0.6223105 pf=0.92 status=variable vmaxpu=1.5 vminpu=0.6 daily="RU4_SA" 
New "Load.BT_2836306_M1" bus1="UC2836306.1.4" phases=1 conn=Wye model=2 kv=0.220000000 kw = 0.2908875 pf=0.92 status=variable vmaxpu=1.5 vminpu=0.6 daily="RU5_SA"  
New "Load.BT_2836306_M2" bus1="UC2836306.1.4" phases=1 conn=Wye model=3 kv=0.220000000 kw = 0.2908875 pf=0.92 status=variable vmaxpu=1.5 vminpu=0.6 daily="RU5_SA" 
New "Load.BT_2805205_M1" bus1="UC2805205.1.4" phases=1 conn=Wye model=2 kv=0.220000000 kw = 0.096303 pf=0.92 status=variable vmaxpu=1.5 vminpu=0.6 daily="RU2_SA"  
New "Load.BT_2805205_M2" bus1="UC2805205.1.4" phases=1 conn=Wye model=3 kv=0.220000000 kw = 0.096303 pf=0.92 status=variable vmaxpu=1.5 vminpu=0.6 daily="RU2_SA" 
New "Load.BT_2833916_M1" bus1="UC2833916.1.4" phases=1 conn=Wye model=2 kv=0.220000000 kw = 0.1162945 pf=0.92 status=variable vmaxpu=1.5 vminpu=0.6 daily="RE1_SA"  
New "Load.BT_2833916_M2" bus1="UC2833916.1.4" phases=1 conn=Wye model=3 kv=0.220000000 kw = 0.1162945 pf=0.92 status=variable vmaxpu=1.5 vminpu=0.6 daily="RE1_SA" 
New "Load.BT_2805208_M1" bus1="UC2805208.2.4" phases=1 conn=Wye model=2 kv=0.220000000 kw = 0.089786 pf=0.92 status=variable vmaxpu=1.5 vminpu=0.6 daily="RU2_SA"  
New "Load.BT_2805208_M2" bus1="UC2805208.2.4" phases=1 conn=Wye model=3 kv=0.220000000 kw = 0.089786 pf=0.92 status=variable vmaxpu=1.5 vminpu=0.6 daily="RU2_SA" 
New "Load.BT_2805360_M1" bus1="UC2805360.1.4" phases=1 conn=Wye model=2 kv=0.220000000 kw = 0.1545675 pf=0.92 status=variable vmaxpu=1.5 vminpu=0.6 daily="RU5_SA"  
New "Load.BT_2805360_M2" bus1="UC2805360.1.4" phases=1 conn=Wye model=3 kv=0.220000000 kw = 0.1545675 pf=0.92 status=variable vmaxpu=1.5 vminpu=0.6 daily="RU5_SA" 
New "Load.BT_2833914_M1" bus1="UC2833914.2.4" phases=1 conn=Wye model=2 kv=0.220000000 kw = 0.357296 pf=0.92 status=variable vmaxpu=1.5 vminpu=0.6 daily="RU4_SA"  
New "Load.BT_2833914_M2" bus1="UC2833914.2.4" phases=1 conn=Wye model=3 kv=0.220000000 kw = 0.357296 pf=0.92 status=variable vmaxpu=1.5 vminpu=0.6 daily="RU4_SA" 
New "Load.BT_2825865_M1" bus1="UC2825865.1.4" phases=1 conn=Wye model=2 kv=0.220000000 kw = 0.0094645 pf=0.92 status=variable vmaxpu=1.5 vminpu=0.6 daily="RU4_SA"  
New "Load.BT_2825865_M2" bus1="UC2825865.1.4" phases=1 conn=Wye model=3 kv=0.220000000 kw = 0.0094645 pf=0.92 status=variable vmaxpu=1.5 vminpu=0.6 daily="RU4_SA" 
New "Load.BT_2836304_M1" bus1="UC2836304.1.4" phases=1 conn=Wye model=2 kv=0.220000000 kw = 0.451639 pf=0.92 status=variable vmaxpu=1.5 vminpu=0.6 daily="RU8_SA"  
New "Load.BT_2836304_M2" bus1="UC2836304.1.4" phases=1 conn=Wye model=3 kv=0.220000000 kw = 0.451639 pf=0.92 status=variable vmaxpu=1.5 vminpu=0.6 daily="RU8_SA" 
New "Load.BT_2805265_M1" bus1="UC2805265.2.4" phases=1 conn=Wye model=2 kv=0.220000000 kw = 0.532733 pf=0.92 status=variable vmaxpu=1.5 vminpu=0.6 daily="RU6_SA"  
New "Load.BT_2805265_M2" bus1="UC2805265.2.4" phases=1 conn=Wye model=3 kv=0.220000000 kw = 0.532733 pf=0.92 status=variable vmaxpu=1.5 vminpu=0.6 daily="RU6_SA" 
New "Load.BT_2805282_M1" bus1="UC2805282.1.2.4" phases=1 conn=Delta model=2 kv=0.440000000 kw = 0.4683665 pf=0.92 status=variable vmaxpu=1.5 vminpu=0.6 daily="RU6_SA"  
New "Load.BT_2805282_M2" bus1="UC2805282.1.2.4" phases=1 conn=Delta model=3 kv=0.440000000 kw = 0.4683665 pf=0.92 status=variable vmaxpu=1.5 vminpu=0.6 daily="RU6_SA" 
New "Load.BT_2819347_M1" bus1="UC2819347.1.4" phases=1 conn=Wye model=2 kv=0.220000000 kw = 0.0048295 pf=0.92 status=variable vmaxpu=1.5 vminpu=0.6 daily="RU1_SA"  
New "Load.BT_2819347_M2" bus1="UC2819347.1.4" phases=1 conn=Wye model=3 kv=0.220000000 kw = 0.0048295 pf=0.92 status=variable vmaxpu=1.5 vminpu=0.6 daily="RU1_SA" 
New "Load.BT_2806091_M1" bus1="UC2806091.1.4" phases=1 conn=Wye model=2 kv=0.220000000 kw = 0.3103355 pf=0.92 status=variable vmaxpu=1.5 vminpu=0.6 daily="RU7_SA"  
New "Load.BT_2806091_M2" bus1="UC2806091.1.4" phases=1 conn=Wye model=3 kv=0.220000000 kw = 0.3103355 pf=0.92 status=variable vmaxpu=1.5 vminpu=0.6 daily="RU7_SA" 
New "Load.BT_2806074_M1" bus1="UC2806074.1.4" phases=1 conn=Wye model=2 kv=0.220000000 kw = 0.2355525 pf=0.92 status=variable vmaxpu=1.5 vminpu=0.6 daily="RU6_SA"  
New "Load.BT_2806074_M2" bus1="UC2806074.1.4" phases=1 conn=Wye model=3 kv=0.220000000 kw = 0.2355525 pf=0.92 status=variable vmaxpu=1.5 vminpu=0.6 daily="RU6_SA" 
New "Load.BT_2805304_M1" bus1="UC2805304.2.4" phases=1 conn=Wye model=2 kv=0.220000000 kw = 0.334817 pf=0.92 status=variable vmaxpu=1.5 vminpu=0.6 daily="RU4_SA"  
New "Load.BT_2805304_M2" bus1="UC2805304.2.4" phases=1 conn=Wye model=3 kv=0.220000000 kw = 0.334817 pf=0.92 status=variable vmaxpu=1.5 vminpu=0.6 daily="RU4_SA" 
New "Load.BT_2832709_M1" bus1="UC2832709.1.4" phases=1 conn=Wye model=2 kv=0.220000000 kw = 0.0042645 pf=0.92 status=variable vmaxpu=1.5 vminpu=0.6 daily="RU1_SA"  
New "Load.BT_2832709_M2" bus1="UC2832709.1.4" phases=1 conn=Wye model=3 kv=0.220000000 kw = 0.0042645 pf=0.92 status=variable vmaxpu=1.5 vminpu=0.6 daily="RU1_SA" 
New "Load.BT_2834135_M1" bus1="UC2834135.1.2.3.4" phases=3 conn=Delta model=2 kv=0.380000000 kw = 0.0 pf=0.92 status=variable vmaxpu=1.5 vminpu=0.6 daily="RU3_SA"  
New "Load.BT_2834135_M2" bus1="UC2834135.1.2.3.4" phases=3 conn=Delta model=3 kv=0.380000000 kw = 0.0 pf=0.92 status=variable vmaxpu=1.5 vminpu=0.6 daily="RU3_SA" 
New "Load.BT_2805429_M1" bus1="UC2805429.1.4" phases=1 conn=Wye model=2 kv=0.219393102 kw = 0.00745 pf=0.92 status=variable vmaxpu=1.5 vminpu=0.6 daily="RU1_SA"  
New "Load.BT_2805429_M2" bus1="UC2805429.1.4" phases=1 conn=Wye model=3 kv=0.219393102 kw = 0.00745 pf=0.92 status=variable vmaxpu=1.5 vminpu=0.6 daily="RU1_SA" 
New "Load.BT_2805386_M1" bus1="UC2805386.1.4" phases=1 conn=Wye model=2 kv=0.220000000 kw = 0.0517325 pf=0.92 status=variable vmaxpu=1.5 vminpu=0.6 daily="RU3_SA"  
New "Load.BT_2805386_M2" bus1="UC2805386.1.4" phases=1 conn=Wye model=3 kv=0.220000000 kw = 0.0517325 pf=0.92 status=variable vmaxpu=1.5 vminpu=0.6 daily="RU3_SA" 
New "Load.BT_2838208_M1" bus1="UC2838208.1.4" phases=1 conn=Wye model=2 kv=0.220000000 kw = 0.0600985 pf=0.92 status=variable vmaxpu=1.5 vminpu=0.6 daily="RU2_SA"  
New "Load.BT_2838208_M2" bus1="UC2838208.1.4" phases=1 conn=Wye model=3 kv=0.220000000 kw = 0.0600985 pf=0.92 status=variable vmaxpu=1.5 vminpu=0.6 daily="RU2_SA" 
New "Load.BT_2805326_M1" bus1="UC2805326.1.4" phases=1 conn=Wye model=2 kv=0.219393102 kw = 0.151568 pf=0.92 status=variable vmaxpu=1.5 vminpu=0.6 daily="RU3_SA"  
New "Load.BT_2805326_M2" bus1="UC2805326.1.4" phases=1 conn=Wye model=3 kv=0.219393102 kw = 0.151568 pf=0.92 status=variable vmaxpu=1.5 vminpu=0.6 daily="RU3_SA" 
New "Load.BT_2837166_M1" bus1="UC2837166.1.2.3.4" phases=3 conn=Delta model=2 kv=0.380000000 kw = 0.0 pf=0.92 status=variable vmaxpu=1.5 vminpu=0.6 daily="RU1_SA"  
New "Load.BT_2837166_M2" bus1="UC2837166.1.2.3.4" phases=3 conn=Delta model=3 kv=0.380000000 kw = 0.0 pf=0.92 status=variable vmaxpu=1.5 vminpu=0.6 daily="RU1_SA" 
New "Load.BT_2805365_M1" bus1="UC2805365.2.4" phases=1 conn=Wye model=2 kv=0.220000000 kw = 0.1524755 pf=0.92 status=variable vmaxpu=1.5 vminpu=0.6 daily="RU3_SA"  
New "Load.BT_2805365_M2" bus1="UC2805365.2.4" phases=1 conn=Wye model=3 kv=0.220000000 kw = 0.1524755 pf=0.92 status=variable vmaxpu=1.5 vminpu=0.6 daily="RU3_SA" 
New "Load.BT_2831802_M1" bus1="UC2831802.1.2.4" phases=1 conn=Delta model=2 kv=0.440000000 kw = 0.8723675 pf=0.92 status=variable vmaxpu=1.5 vminpu=0.6 daily="RU6_SA"  
New "Load.BT_2831802_M2" bus1="UC2831802.1.2.4" phases=1 conn=Delta model=3 kv=0.440000000 kw = 0.8723675 pf=0.92 status=variable vmaxpu=1.5 vminpu=0.6 daily="RU6_SA" 
New "Load.BT_2818330_M1" bus1="UC2818330.2.4" phases=1 conn=Wye model=2 kv=0.220000000 kw = 0.2886765 pf=0.92 status=variable vmaxpu=1.5 vminpu=0.6 daily="RU4_SA"  
New "Load.BT_2818330_M2" bus1="UC2818330.2.4" phases=1 conn=Wye model=3 kv=0.220000000 kw = 0.2886765 pf=0.92 status=variable vmaxpu=1.5 vminpu=0.6 daily="RU4_SA" 
New "Load.BT_2836308_M1" bus1="UC2836308.1.2.3.4" phases=3 conn=Delta model=2 kv=0.380000000 kw = 0.038588 pf=0.92 status=variable vmaxpu=1.5 vminpu=0.6 daily="RU1_SA"  
New "Load.BT_2836308_M2" bus1="UC2836308.1.2.3.4" phases=3 conn=Delta model=3 kv=0.380000000 kw = 0.038588 pf=0.92 status=variable vmaxpu=1.5 vminpu=0.6 daily="RU1_SA" 
New "Load.BT_2803522_M1" bus1="UC2803522.1.2.4" phases=1 conn=Delta model=2 kv=0.440000000 kw = 0.864978 pf=0.92 status=variable vmaxpu=1.5 vminpu=0.6 daily="RU7_SA"  
New "Load.BT_2803522_M2" bus1="UC2803522.1.2.4" phases=1 conn=Delta model=3 kv=0.440000000 kw = 0.864978 pf=0.92 status=variable vmaxpu=1.5 vminpu=0.6 daily="RU7_SA" 
New "Load.BT_2805257_M1" bus1="UC2805257.1.2.4" phases=1 conn=Delta model=2 kv=0.380000000 kw = 0.422914 pf=0.92 status=variable vmaxpu=1.5 vminpu=0.6 daily="RU5_SA"  
New "Load.BT_2805257_M2" bus1="UC2805257.1.2.4" phases=1 conn=Delta model=3 kv=0.380000000 kw = 0.422914 pf=0.92 status=variable vmaxpu=1.5 vminpu=0.6 daily="RU5_SA" 
New "Load.BT_2822262_M1" bus1="UC2822262.2.4" phases=1 conn=Wye model=2 kv=0.219393102 kw = 0.1937365 pf=0.92 status=variable vmaxpu=1.5 vminpu=0.6 daily="RE2_SA"  
New "Load.BT_2822262_M2" bus1="UC2822262.2.4" phases=1 conn=Wye model=3 kv=0.219393102 kw = 0.1937365 pf=0.92 status=variable vmaxpu=1.5 vminpu=0.6 daily="RE2_SA" 
New "Load.BT_2805246_M1" bus1="UC2805246.1.4" phases=1 conn=Wye model=2 kv=0.219393102 kw = 0.430021 pf=0.92 status=variable vmaxpu=1.5 vminpu=0.6 daily="RU6_SA"  
New "Load.BT_2805246_M2" bus1="UC2805246.1.4" phases=1 conn=Wye model=3 kv=0.219393102 kw = 0.430021 pf=0.92 status=variable vmaxpu=1.5 vminpu=0.6 daily="RU6_SA" 
New "Load.BT_2833912_M1" bus1="UC2833912.1.4" phases=1 conn=Wye model=2 kv=0.220000000 kw = 0.106479 pf=0.92 status=variable vmaxpu=1.5 vminpu=0.6 daily="RU4_SA"  
New "Load.BT_2833912_M2" bus1="UC2833912.1.4" phases=1 conn=Wye model=3 kv=0.220000000 kw = 0.106479 pf=0.92 status=variable vmaxpu=1.5 vminpu=0.6 daily="RU4_SA" 
New "Load.BT_2805428_M1" bus1="UC2805428.2.4" phases=1 conn=Wye model=2 kv=0.219393102 kw = 0.0816835 pf=0.92 status=variable vmaxpu=1.5 vminpu=0.6 daily="RU3_SA"  
New "Load.BT_2805428_M2" bus1="UC2805428.2.4" phases=1 conn=Wye model=3 kv=0.219393102 kw = 0.0816835 pf=0.92 status=variable vmaxpu=1.5 vminpu=0.6 daily="RU3_SA" 
New "Load.BT_2818332_M1" bus1="UC2818332.1.4" phases=1 conn=Wye model=2 kv=0.220000000 kw = 0.222191 pf=0.92 status=variable vmaxpu=1.5 vminpu=0.6 daily="RU5_SA"  
New "Load.BT_2818332_M2" bus1="UC2818332.1.4" phases=1 conn=Wye model=3 kv=0.220000000 kw = 0.222191 pf=0.92 status=variable vmaxpu=1.5 vminpu=0.6 daily="RU5_SA" 
New "Load.BT_2817034_M1" bus1="UC2817034.1.4" phases=1 conn=Wye model=2 kv=0.220000000 kw = 0.1481715 pf=0.92 status=variable vmaxpu=1.5 vminpu=0.6 daily="RU8_SA"  
New "Load.BT_2817034_M2" bus1="UC2817034.1.4" phases=1 conn=Wye model=3 kv=0.220000000 kw = 0.1481715 pf=0.92 status=variable vmaxpu=1.5 vminpu=0.6 daily="RU8_SA" 
New "Load.BT_2805274_M1" bus1="UC2805274.2.4" phases=1 conn=Wye model=2 kv=0.220000000 kw = 0.270718 pf=0.92 status=variable vmaxpu=1.5 vminpu=0.6 daily="RU7_SA"  
New "Load.BT_2805274_M2" bus1="UC2805274.2.4" phases=1 conn=Wye model=3 kv=0.220000000 kw = 0.270718 pf=0.92 status=variable vmaxpu=1.5 vminpu=0.6 daily="RU7_SA" 
New "Load.BT_2824960_M1" bus1="UC2824960.1.4" phases=1 conn=Wye model=2 kv=0.219393102 kw = 0.285319 pf=0.92 status=variable vmaxpu=1.5 vminpu=0.6 daily="RE6_SA"  
New "Load.BT_2824960_M2" bus1="UC2824960.1.4" phases=1 conn=Wye model=3 kv=0.219393102 kw = 0.285319 pf=0.92 status=variable vmaxpu=1.5 vminpu=0.6 daily="RE6_SA" 
New "Load.BT_2831486_M1" bus1="UC2831486.1.4" phases=1 conn=Wye model=2 kv=0.220000000 kw = 0.242585 pf=0.92 status=variable vmaxpu=1.5 vminpu=0.6 daily="RU5_SA"  
New "Load.BT_2831486_M2" bus1="UC2831486.1.4" phases=1 conn=Wye model=3 kv=0.220000000 kw = 0.242585 pf=0.92 status=variable vmaxpu=1.5 vminpu=0.6 daily="RU5_SA" 
New "Load.BT_2805288_M1" bus1="UC2805288.1.4" phases=1 conn=Wye model=2 kv=0.220000000 kw = 0.221858 pf=0.92 status=variable vmaxpu=1.5 vminpu=0.6 daily="RU6_SA"  
New "Load.BT_2805288_M2" bus1="UC2805288.1.4" phases=1 conn=Wye model=3 kv=0.220000000 kw = 0.221858 pf=0.92 status=variable vmaxpu=1.5 vminpu=0.6 daily="RU6_SA" 
New "Load.BT_2838210_M1" bus1="UC2838210.1.4" phases=1 conn=Wye model=2 kv=0.220000000 kw = 0.105646 pf=0.92 status=variable vmaxpu=1.5 vminpu=0.6 daily="RU7_SA"  
New "Load.BT_2838210_M2" bus1="UC2838210.1.4" phases=1 conn=Wye model=3 kv=0.220000000 kw = 0.105646 pf=0.92 status=variable vmaxpu=1.5 vminpu=0.6 daily="RU7_SA" 
New "Load.BT_2838209_M1" bus1="UC2838209.1.2.3.4" phases=3 conn=Delta model=2 kv=0.380000000 kw = 0.073732 pf=0.92 status=variable vmaxpu=1.5 vminpu=0.6 daily="RU7_SA"  
New "Load.BT_2838209_M2" bus1="UC2838209.1.2.3.4" phases=3 conn=Delta model=3 kv=0.380000000 kw = 0.073732 pf=0.92 status=variable vmaxpu=1.5 vminpu=0.6 daily="RU7_SA" 
New "Load.BT_2835368_M1" bus1="UC2835368.1.4" phases=1 conn=Wye model=2 kv=0.220000000 kw = 0.389639 pf=0.92 status=variable vmaxpu=1.5 vminpu=0.6 daily="RU5_SA"  
New "Load.BT_2835368_M2" bus1="UC2835368.1.4" phases=1 conn=Wye model=3 kv=0.220000000 kw = 0.389639 pf=0.92 status=variable vmaxpu=1.5 vminpu=0.6 daily="RU5_SA" 
New "Load.BT_2806095_M1" bus1="UC2806095.1.4" phases=1 conn=Wye model=2 kv=0.220000000 kw = 0.0016955 pf=0.92 status=variable vmaxpu=1.5 vminpu=0.6 daily="RU1_SA"  
New "Load.BT_2806095_M2" bus1="UC2806095.1.4" phases=1 conn=Wye model=3 kv=0.220000000 kw = 0.0016955 pf=0.92 status=variable vmaxpu=1.5 vminpu=0.6 daily="RU1_SA" 
New "Load.BT_2835361_M1" bus1="UC2835361.2.4" phases=1 conn=Wye model=2 kv=0.219393102 kw = 0.253486 pf=0.92 status=variable vmaxpu=1.5 vminpu=0.6 daily="RE1_SA"  
New "Load.BT_2835361_M2" bus1="UC2835361.2.4" phases=1 conn=Wye model=3 kv=0.219393102 kw = 0.253486 pf=0.92 status=variable vmaxpu=1.5 vminpu=0.6 daily="RE1_SA" 
New "Load.BT_2831807_M1" bus1="UC2831807.1.4" phases=1 conn=Wye model=2 kv=0.220000000 kw = 0.2277995 pf=0.92 status=variable vmaxpu=1.5 vminpu=0.6 daily="RU7_SA"  
New "Load.BT_2831807_M2" bus1="UC2831807.1.4" phases=1 conn=Wye model=3 kv=0.220000000 kw = 0.2277995 pf=0.92 status=variable vmaxpu=1.5 vminpu=0.6 daily="RU7_SA" 
New "Load.BT_2821687_M1" bus1="UC2821687.1.4" phases=1 conn=Wye model=2 kv=0.220000000 kw = 0.0048295 pf=0.92 status=variable vmaxpu=1.5 vminpu=0.6 daily="RU1_SA"  
New "Load.BT_2821687_M2" bus1="UC2821687.1.4" phases=1 conn=Wye model=3 kv=0.220000000 kw = 0.0048295 pf=0.92 status=variable vmaxpu=1.5 vminpu=0.6 daily="RU1_SA" 
New "Load.BT_2826239_M1" bus1="UC2826239.1.4" phases=1 conn=Wye model=2 kv=0.220000000 kw = 0.3134405 pf=0.92 status=variable vmaxpu=1.5 vminpu=0.6 daily="RU8_SA"  
New "Load.BT_2826239_M2" bus1="UC2826239.1.4" phases=1 conn=Wye model=3 kv=0.220000000 kw = 0.3134405 pf=0.92 status=variable vmaxpu=1.5 vminpu=0.6 daily="RU8_SA" 
New "Load.BT_2819358_M1" bus1="UC2819358.1.4" phases=1 conn=Wye model=2 kv=0.220000000 kw = 0.009586 pf=0.92 status=variable vmaxpu=1.5 vminpu=0.6 daily="RU6_SA"  
New "Load.BT_2819358_M2" bus1="UC2819358.1.4" phases=1 conn=Wye model=3 kv=0.220000000 kw = 0.009586 pf=0.92 status=variable vmaxpu=1.5 vminpu=0.6 daily="RU6_SA" 
New "Load.BT_2821691_M1" bus1="UC2821691.3.4" phases=1 conn=Wye model=2 kv=0.219393102 kw = 0.252129 pf=0.92 status=variable vmaxpu=1.5 vminpu=0.6 daily="RE3_SA"  
New "Load.BT_2821691_M2" bus1="UC2821691.3.4" phases=1 conn=Wye model=3 kv=0.219393102 kw = 0.252129 pf=0.92 status=variable vmaxpu=1.5 vminpu=0.6 daily="RE3_SA" 
New "Load.BT_2828384_M1" bus1="UC2828384.1.2.3.4" phases=3 conn=Delta model=2 kv=0.380000000 kw = 0.0934065 pf=0.92 status=variable vmaxpu=1.5 vminpu=0.6 daily="RU2_SA"  
New "Load.BT_2828384_M2" bus1="UC2828384.1.2.3.4" phases=3 conn=Delta model=3 kv=0.380000000 kw = 0.0934065 pf=0.92 status=variable vmaxpu=1.5 vminpu=0.6 daily="RU2_SA" 
New "Load.BT_2836675_M1" bus1="UC2836675.1.2.3.4" phases=3 conn=Delta model=2 kv=0.380000000 kw = 0.191059 pf=0.92 status=variable vmaxpu=1.5 vminpu=0.6 daily="IN4_SA"  
New "Load.BT_2836675_M2" bus1="UC2836675.1.2.3.4" phases=3 conn=Delta model=3 kv=0.380000000 kw = 0.191059 pf=0.92 status=variable vmaxpu=1.5 vminpu=0.6 daily="IN4_SA" 
New "Load.BT_2805354_M1" bus1="UC2805354.2.4" phases=1 conn=Wye model=2 kv=0.219393102 kw = 0.280746 pf=0.92 status=variable vmaxpu=1.5 vminpu=0.6 daily="RU6_SA"  
New "Load.BT_2805354_M2" bus1="UC2805354.2.4" phases=1 conn=Wye model=3 kv=0.219393102 kw = 0.280746 pf=0.92 status=variable vmaxpu=1.5 vminpu=0.6 daily="RU6_SA" 
New "Load.BT_2805349_M1" bus1="UC2805349.2.4" phases=1 conn=Wye model=2 kv=0.220000000 kw = 0.1254545 pf=0.92 status=variable vmaxpu=1.5 vminpu=0.6 daily="RU7_SA"  
New "Load.BT_2805349_M2" bus1="UC2805349.2.4" phases=1 conn=Wye model=3 kv=0.220000000 kw = 0.1254545 pf=0.92 status=variable vmaxpu=1.5 vminpu=0.6 daily="RU7_SA" 
New "Load.BT_2805289_M1" bus1="UC2805289.1.4" phases=1 conn=Wye model=2 kv=0.220000000 kw = 0.0054975 pf=0.92 status=variable vmaxpu=1.5 vminpu=0.6 daily="RU1_SA"  
New "Load.BT_2805289_M2" bus1="UC2805289.1.4" phases=1 conn=Wye model=3 kv=0.220000000 kw = 0.0054975 pf=0.92 status=variable vmaxpu=1.5 vminpu=0.6 daily="RU1_SA" 
New "Load.BT_2817015_M1" bus1="UC2817015.1.4" phases=1 conn=Wye model=2 kv=0.220000000 kw = 0.023281 pf=0.92 status=variable vmaxpu=1.5 vminpu=0.6 daily="RU6_SA"  
New "Load.BT_2817015_M2" bus1="UC2817015.1.4" phases=1 conn=Wye model=3 kv=0.220000000 kw = 0.023281 pf=0.92 status=variable vmaxpu=1.5 vminpu=0.6 daily="RU6_SA" 
New "Load.BT_2807370_M1" bus1="UC2807370.1.2.4" phases=1 conn=Delta model=2 kv=0.440000000 kw = 0.2123925 pf=0.92 status=variable vmaxpu=1.5 vminpu=0.6 daily="RU7_SA"  
New "Load.BT_2807370_M2" bus1="UC2807370.1.2.4" phases=1 conn=Delta model=3 kv=0.440000000 kw = 0.2123925 pf=0.92 status=variable vmaxpu=1.5 vminpu=0.6 daily="RU7_SA" 
New "Load.BT_2836080_M1" bus1="UC2836080.1.2.3.4" phases=3 conn=Delta model=2 kv=0.380000000 kw = 0.536525 pf=0.92 status=variable vmaxpu=1.5 vminpu=0.6 daily="CO7_SA"  
New "Load.BT_2836080_M2" bus1="UC2836080.1.2.3.4" phases=3 conn=Delta model=3 kv=0.380000000 kw = 0.536525 pf=0.92 status=variable vmaxpu=1.5 vminpu=0.6 daily="CO7_SA" 
New "Load.BT_2806068_M1" bus1="UC2806068.2.4" phases=1 conn=Wye model=2 kv=0.220000000 kw = 0.122525 pf=0.92 status=variable vmaxpu=1.5 vminpu=0.6 daily="RU3_SA"  
New "Load.BT_2806068_M2" bus1="UC2806068.2.4" phases=1 conn=Wye model=3 kv=0.220000000 kw = 0.122525 pf=0.92 status=variable vmaxpu=1.5 vminpu=0.6 daily="RU3_SA" 
New "Load.BT_2805425_M1" bus1="UC2805425.2.4" phases=1 conn=Wye model=2 kv=0.219393102 kw = 0.203943 pf=0.92 status=variable vmaxpu=1.5 vminpu=0.6 daily="RU5_SA"  
New "Load.BT_2805425_M2" bus1="UC2805425.2.4" phases=1 conn=Wye model=3 kv=0.219393102 kw = 0.203943 pf=0.92 status=variable vmaxpu=1.5 vminpu=0.6 daily="RU5_SA" 
New "Load.BT_2805290_M1" bus1="UC2805290.1.4" phases=1 conn=Wye model=2 kv=0.220000000 kw = 0.5436375 pf=0.92 status=variable vmaxpu=1.5 vminpu=0.6 daily="RU7_SA"  
New "Load.BT_2805290_M2" bus1="UC2805290.1.4" phases=1 conn=Wye model=3 kv=0.220000000 kw = 0.5436375 pf=0.92 status=variable vmaxpu=1.5 vminpu=0.6 daily="RU7_SA" 
New "Load.BT_2805366_M1" bus1="UC2805366.2.4" phases=1 conn=Wye model=2 kv=0.220000000 kw = 0.330537 pf=0.92 status=variable vmaxpu=1.5 vminpu=0.6 daily="RU8_SA"  
New "Load.BT_2805366_M2" bus1="UC2805366.2.4" phases=1 conn=Wye model=3 kv=0.220000000 kw = 0.330537 pf=0.92 status=variable vmaxpu=1.5 vminpu=0.6 daily="RU8_SA" 
New "Load.BT_2836489_M1" bus1="UC2836489.2.4" phases=1 conn=Wye model=2 kv=0.220000000 kw = 0.016031 pf=0.92 status=variable vmaxpu=1.5 vminpu=0.6 daily="RU1_SA"  
New "Load.BT_2836489_M2" bus1="UC2836489.2.4" phases=1 conn=Wye model=3 kv=0.220000000 kw = 0.016031 pf=0.92 status=variable vmaxpu=1.5 vminpu=0.6 daily="RU1_SA" 
New "Load.BT_2807371_M1" bus1="UC2807371.1.4" phases=1 conn=Wye model=2 kv=0.220000000 kw = 0.18379 pf=0.92 status=variable vmaxpu=1.5 vminpu=0.6 daily="RU8_SA"  
New "Load.BT_2807371_M2" bus1="UC2807371.1.4" phases=1 conn=Wye model=3 kv=0.220000000 kw = 0.18379 pf=0.92 status=variable vmaxpu=1.5 vminpu=0.6 daily="RU8_SA" 
New "Load.BT_3205285_M1" bus1="UC3205285.1.4" phases=1 conn=Wye model=2 kv=0.220000000 kw = 0.38482 pf=0.92 status=variable vmaxpu=1.5 vminpu=0.6 daily="RU3_SA"  
New "Load.BT_3205285_M2" bus1="UC3205285.1.4" phases=1 conn=Wye model=3 kv=0.220000000 kw = 0.38482 pf=0.92 status=variable vmaxpu=1.5 vminpu=0.6 daily="RU3_SA" 
New "Load.BT_2821026_M1" bus1="UC2821026.1.4" phases=1 conn=Wye model=2 kv=0.219393102 kw = 0.003905 pf=0.92 status=variable vmaxpu=1.5 vminpu=0.6 daily="RU1_SA"  
New "Load.BT_2821026_M2" bus1="UC2821026.1.4" phases=1 conn=Wye model=3 kv=0.219393102 kw = 0.003905 pf=0.92 status=variable vmaxpu=1.5 vminpu=0.6 daily="RU1_SA" 
New "Load.BT_2825582_M1" bus1="UC2825582.2.4" phases=1 conn=Wye model=2 kv=0.220000000 kw = 0.2236825 pf=0.92 status=variable vmaxpu=1.5 vminpu=0.6 daily="RU8_SA"  
New "Load.BT_2825582_M2" bus1="UC2825582.2.4" phases=1 conn=Wye model=3 kv=0.220000000 kw = 0.2236825 pf=0.92 status=variable vmaxpu=1.5 vminpu=0.6 daily="RU8_SA" 
New "Load.BT_2833915_M1" bus1="UC2833915.1.2.3.4" phases=3 conn=Delta model=2 kv=0.380000000 kw = 2.0273905 pf=0.92 status=variable vmaxpu=1.5 vminpu=0.6 daily="RU8_SA"  
New "Load.BT_2833915_M2" bus1="UC2833915.1.2.3.4" phases=3 conn=Delta model=3 kv=0.380000000 kw = 2.0273905 pf=0.92 status=variable vmaxpu=1.5 vminpu=0.6 daily="RU8_SA" 
New "Load.BT_2834959_M1" bus1="UC2834959.1.4" phases=1 conn=Wye model=2 kv=0.220000000 kw = 0.0022005 pf=0.92 status=variable vmaxpu=1.5 vminpu=0.6 daily="RU7_SA"  
New "Load.BT_2834959_M2" bus1="UC2834959.1.4" phases=1 conn=Wye model=3 kv=0.220000000 kw = 0.0022005 pf=0.92 status=variable vmaxpu=1.5 vminpu=0.6 daily="RU7_SA" 
New "Load.BT_2819343_M1" bus1="UC2819343.1.4" phases=1 conn=Wye model=2 kv=0.220000000 kw = 0.0329455 pf=0.92 status=variable vmaxpu=1.5 vminpu=0.6 daily="RU2_SA"  
New "Load.BT_2819343_M2" bus1="UC2819343.1.4" phases=1 conn=Wye model=3 kv=0.220000000 kw = 0.0329455 pf=0.92 status=variable vmaxpu=1.5 vminpu=0.6 daily="RU2_SA" 
New "Load.BT_2805231_M1" bus1="UC2805231.2.4" phases=1 conn=Wye model=2 kv=0.220000000 kw = 0.344557 pf=0.92 status=variable vmaxpu=1.5 vminpu=0.6 daily="RU5_SA"  
New "Load.BT_2805231_M2" bus1="UC2805231.2.4" phases=1 conn=Wye model=3 kv=0.220000000 kw = 0.344557 pf=0.92 status=variable vmaxpu=1.5 vminpu=0.6 daily="RU5_SA" 
New "Load.BT_2823647_M1" bus1="UC2823647.1.4" phases=1 conn=Wye model=2 kv=0.220000000 kw = 0.039715 pf=0.92 status=variable vmaxpu=1.5 vminpu=0.6 daily="RU5_SA"  
New "Load.BT_2823647_M2" bus1="UC2823647.1.4" phases=1 conn=Wye model=3 kv=0.220000000 kw = 0.039715 pf=0.92 status=variable vmaxpu=1.5 vminpu=0.6 daily="RU5_SA" 
New "Load.BT_2826236_M1" bus1="UC2826236.1.4" phases=1 conn=Wye model=2 kv=0.220000000 kw = 0.0051895 pf=0.92 status=variable vmaxpu=1.5 vminpu=0.6 daily="RU1_SA"  
New "Load.BT_2826236_M2" bus1="UC2826236.1.4" phases=1 conn=Wye model=3 kv=0.220000000 kw = 0.0051895 pf=0.92 status=variable vmaxpu=1.5 vminpu=0.6 daily="RU1_SA" 
New "Load.BT_2836791_M1" bus1="UC2836791.1.2.3.4" phases=3 conn=Delta model=2 kv=0.380000000 kw = 0.2903325 pf=0.92 status=variable vmaxpu=1.5 vminpu=0.6 daily="RU6_SA"  
New "Load.BT_2836791_M2" bus1="UC2836791.1.2.3.4" phases=3 conn=Delta model=3 kv=0.380000000 kw = 0.2903325 pf=0.92 status=variable vmaxpu=1.5 vminpu=0.6 daily="RU6_SA" 
New "Load.BT_2805441_M1" bus1="UC2805441.1.4" phases=1 conn=Wye model=2 kv=0.220000000 kw = 0.2661995 pf=0.92 status=variable vmaxpu=1.5 vminpu=0.6 daily="RU5_SA"  
New "Load.BT_2805441_M2" bus1="UC2805441.1.4" phases=1 conn=Wye model=3 kv=0.220000000 kw = 0.2661995 pf=0.92 status=variable vmaxpu=1.5 vminpu=0.6 daily="RU5_SA" 
New "Load.BT_2805240_M1" bus1="UC2805240.1.2.4" phases=1 conn=Delta model=2 kv=0.380000000 kw = 1.253448 pf=0.92 status=variable vmaxpu=1.5 vminpu=0.6 daily="RU7_SA"  
New "Load.BT_2805240_M2" bus1="UC2805240.1.2.4" phases=1 conn=Delta model=3 kv=0.380000000 kw = 1.253448 pf=0.92 status=variable vmaxpu=1.5 vminpu=0.6 daily="RU7_SA" 
New "Load.BT_2838968_M1" bus1="UC2838968.1.4" phases=1 conn=Wye model=2 kv=0.220000000 kw = 0.0 pf=0.92 status=variable vmaxpu=1.5 vminpu=0.6 daily="RU3_SA"  
New "Load.BT_2838968_M2" bus1="UC2838968.1.4" phases=1 conn=Wye model=3 kv=0.220000000 kw = 0.0 pf=0.92 status=variable vmaxpu=1.5 vminpu=0.6 daily="RU3_SA" 
New "Load.BT_2832904_M1" bus1="UC2832904.2.4" phases=1 conn=Wye model=2 kv=0.220000000 kw = 0.565601 pf=0.92 status=variable vmaxpu=1.5 vminpu=0.6 daily="RU6_SA"  
New "Load.BT_2832904_M2" bus1="UC2832904.2.4" phases=1 conn=Wye model=3 kv=0.220000000 kw = 0.565601 pf=0.92 status=variable vmaxpu=1.5 vminpu=0.6 daily="RU6_SA" 

New "Load.BT_2805321_M1" bus1="UC2805321.1.4" phases=1 conn=Wye model=2 kv=0.220000000 kw = 0.233302 pf=0.92 status=variable vmaxpu=1.5 vminpu=0.6 daily="RU7_SA"  
New "Load.BT_2805321_M2" bus1="UC2805321.1.4" phases=1 conn=Wye model=3 kv=0.220000000 kw = 0.233302 pf=0.92 status=variable vmaxpu=1.5 vminpu=0.6 daily="RU7_SA" 
New "Load.BT_2805443_M1" bus1="UC2805443.1.4" phases=1 conn=Wye model=2 kv=0.220000000 kw = 0.234183 pf=0.92 status=variable vmaxpu=1.5 vminpu=0.6 daily="RU6_SA"  
New "Load.BT_2805443_M2" bus1="UC2805443.1.4" phases=1 conn=Wye model=3 kv=0.220000000 kw = 0.234183 pf=0.92 status=variable vmaxpu=1.5 vminpu=0.6 daily="RU6_SA" 
New "Load.BT_2805797_M1" bus1="UC2805797.2.4" phases=1 conn=Wye model=2 kv=0.220000000 kw = 0.104005 pf=0.92 status=variable vmaxpu=1.5 vminpu=0.6 daily="RU8_SA"  
New "Load.BT_2805797_M2" bus1="UC2805797.2.4" phases=1 conn=Wye model=3 kv=0.220000000 kw = 0.104005 pf=0.92 status=variable vmaxpu=1.5 vminpu=0.6 daily="RU8_SA" 
New "Load.BT_2830104_M1" bus1="UC2830104.1.4" phases=1 conn=Wye model=2 kv=0.220000000 kw = 0.0 pf=0.92 status=variable vmaxpu=1.5 vminpu=0.6 daily="RU5_SA"  
New "Load.BT_2830104_M2" bus1="UC2830104.1.4" phases=1 conn=Wye model=3 kv=0.220000000 kw = 0.0 pf=0.92 status=variable vmaxpu=1.5 vminpu=0.6 daily="RU5_SA" 
New "Load.BT_2805238_M1" bus1="UC2805238.1.4" phases=1 conn=Wye model=2 kv=0.220000000 kw = 0.2930715 pf=0.92 status=variable vmaxpu=1.5 vminpu=0.6 daily="RU6_SA"  
New "Load.BT_2805238_M2" bus1="UC2805238.1.4" phases=1 conn=Wye model=3 kv=0.220000000 kw = 0.2930715 pf=0.92 status=variable vmaxpu=1.5 vminpu=0.6 daily="RU6_SA" 
New "Load.BT_2836305_M1" bus1="UC2836305.3.4" phases=1 conn=Wye model=2 kv=0.219393102 kw = 0.3348115 pf=0.92 status=variable vmaxpu=1.5 vminpu=0.6 daily="RU8_SA"  
New "Load.BT_2836305_M2" bus1="UC2836305.3.4" phases=1 conn=Wye model=3 kv=0.219393102 kw = 0.3348115 pf=0.92 status=variable vmaxpu=1.5 vminpu=0.6 daily="RU8_SA" 
New "Load.BT_2805300_M1" bus1="UC2805300.1.2.3.4" phases=3 conn=Delta model=2 kv=0.380000000 kw = 0.560731 pf=0.92 status=variable vmaxpu=1.5 vminpu=0.6 daily="CO3_SA"  
New "Load.BT_2805300_M2" bus1="UC2805300.1.2.3.4" phases=3 conn=Delta model=3 kv=0.380000000 kw = 0.560731 pf=0.92 status=variable vmaxpu=1.5 vminpu=0.6 daily="CO3_SA" 
New "Load.BT_2832702_M1" bus1="UC2832702.2.4" phases=1 conn=Wye model=2 kv=0.219393102 kw = 0.217895 pf=0.92 status=variable vmaxpu=1.5 vminpu=0.6 daily="RU7_SA"  
New "Load.BT_2832702_M2" bus1="UC2832702.2.4" phases=1 conn=Wye model=3 kv=0.219393102 kw = 0.217895 pf=0.92 status=variable vmaxpu=1.5 vminpu=0.6 daily="RU7_SA" 
New "Load.BT_2821297_M1" bus1="UC2821297.2.4" phases=1 conn=Wye model=2 kv=0.220000000 kw = 0.443716 pf=0.92 status=variable vmaxpu=1.5 vminpu=0.6 daily="RU6_SA"  
New "Load.BT_2821297_M2" bus1="UC2821297.2.4" phases=1 conn=Wye model=3 kv=0.220000000 kw = 0.443716 pf=0.92 status=variable vmaxpu=1.5 vminpu=0.6 daily="RU6_SA" 
New "Load.BT_2833919_M1" bus1="UC2833919.1.2.3.4" phases=3 conn=Delta model=2 kv=0.380000000 kw = 0.1277745 pf=0.92 status=variable vmaxpu=1.5 vminpu=0.6 daily="RU4_SA"  
New "Load.BT_2833919_M2" bus1="UC2833919.1.2.3.4" phases=3 conn=Delta model=3 kv=0.380000000 kw = 0.1277745 pf=0.92 status=variable vmaxpu=1.5 vminpu=0.6 daily="RU4_SA" 
New "Load.BT_2805256_M1" bus1="UC2805256.1.2.4" phases=1 conn=Delta model=2 kv=0.380000000 kw = 0.8334665 pf=0.92 status=variable vmaxpu=1.5 vminpu=0.6 daily="RU8_SA"  
New "Load.BT_2805256_M2" bus1="UC2805256.1.2.4" phases=1 conn=Delta model=3 kv=0.380000000 kw = 0.8334665 pf=0.92 status=variable vmaxpu=1.5 vminpu=0.6 daily="RU8_SA" 
New "Load.BT_2821023_M1" bus1="UC2821023.1.4" phases=1 conn=Wye model=2 kv=0.220000000 kw = 0.0093515 pf=0.92 status=variable vmaxpu=1.5 vminpu=0.6 daily="RU1_SA"  
New "Load.BT_2821023_M2" bus1="UC2821023.1.4" phases=1 conn=Wye model=3 kv=0.220000000 kw = 0.0093515 pf=0.92 status=variable vmaxpu=1.5 vminpu=0.6 daily="RU1_SA" 
New "Load.BT_2805359_M1" bus1="UC2805359.1.4" phases=1 conn=Wye model=2 kv=0.220000000 kw = 0.319869 pf=0.92 status=variable vmaxpu=1.5 vminpu=0.6 daily="RU5_SA"  
New "Load.BT_2805359_M2" bus1="UC2805359.1.4" phases=1 conn=Wye model=3 kv=0.220000000 kw = 0.319869 pf=0.92 status=variable vmaxpu=1.5 vminpu=0.6 daily="RU5_SA" 
New "Load.BT_2831931_M1" bus1="UC2831931.1.4" phases=1 conn=Wye model=2 kv=0.220000000 kw = 0.356182 pf=0.92 status=variable vmaxpu=1.5 vminpu=0.6 daily="RU8_SA"  
New "Load.BT_2831931_M2" bus1="UC2831931.1.4" phases=1 conn=Wye model=3 kv=0.220000000 kw = 0.356182 pf=0.92 status=variable vmaxpu=1.5 vminpu=0.6 daily="RU8_SA" 
New "Load.BT_2805222_M1" bus1="UC2805222.1.4" phases=1 conn=Wye model=2 kv=0.220000000 kw = 0.0 pf=0.92 status=variable vmaxpu=1.5 vminpu=0.6 daily="CO6_SA"  
New "Load.BT_2805222_M2" bus1="UC2805222.1.4" phases=1 conn=Wye model=3 kv=0.220000000 kw = 0.0 pf=0.92 status=variable vmaxpu=1.5 vminpu=0.6 daily="CO6_SA" 
New "Load.BT_2817029_M1" bus1="UC2817029.2.4" phases=1 conn=Wye model=2 kv=0.219393102 kw = 0.4726105 pf=0.92 status=variable vmaxpu=1.5 vminpu=0.6 daily="RE3_SA"  
New "Load.BT_2817029_M2" bus1="UC2817029.2.4" phases=1 conn=Wye model=3 kv=0.219393102 kw = 0.4726105 pf=0.92 status=variable vmaxpu=1.5 vminpu=0.6 daily="RE3_SA" 
New "Load.BT_2831803_M1" bus1="UC2831803.2.4" phases=1 conn=Wye model=2 kv=0.220000000 kw = 0.0331265 pf=0.92 status=variable vmaxpu=1.5 vminpu=0.6 daily="RU4_SA"  
New "Load.BT_2831803_M2" bus1="UC2831803.2.4" phases=1 conn=Wye model=3 kv=0.220000000 kw = 0.0331265 pf=0.92 status=variable vmaxpu=1.5 vminpu=0.6 daily="RU4_SA" 
New "Load.BT_2833913_M1" bus1="UC2833913.1.2.4" phases=1 conn=Delta model=2 kv=0.440000000 kw = 0.0599115 pf=0.92 status=variable vmaxpu=1.5 vminpu=0.6 daily="RU1_SA"  
New "Load.BT_2833913_M2" bus1="UC2833913.1.2.4" phases=1 conn=Delta model=3 kv=0.440000000 kw = 0.0599115 pf=0.92 status=variable vmaxpu=1.5 vminpu=0.6 daily="RU1_SA" 
New "Load.BT_2837580_M1" bus1="UC2837580.1.4" phases=1 conn=Wye model=2 kv=0.220000000 kw = 0.1438335 pf=0.92 status=variable vmaxpu=1.5 vminpu=0.6 daily="RU5_SA"  
New "Load.BT_2837580_M2" bus1="UC2837580.1.4" phases=1 conn=Wye model=3 kv=0.220000000 kw = 0.1438335 pf=0.92 status=variable vmaxpu=1.5 vminpu=0.6 daily="RU5_SA" 
New "Load.BT_2806092_M1" bus1="UC2806092.2.4" phases=1 conn=Wye model=2 kv=0.220000000 kw = 0.453127 pf=0.92 status=variable vmaxpu=1.5 vminpu=0.6 daily="RU4_SA"  
New "Load.BT_2806092_M2" bus1="UC2806092.2.4" phases=1 conn=Wye model=3 kv=0.220000000 kw = 0.453127 pf=0.92 status=variable vmaxpu=1.5 vminpu=0.6 daily="RU4_SA" 
New "Load.BT_2817032_M1" bus1="UC2817032.1.4" phases=1 conn=Wye model=2 kv=0.220000000 kw = 0.035842 pf=0.92 status=variable vmaxpu=1.5 vminpu=0.6 daily="RU2_SA"  
New "Load.BT_2817032_M2" bus1="UC2817032.1.4" phases=1 conn=Wye model=3 kv=0.220000000 kw = 0.035842 pf=0.92 status=variable vmaxpu=1.5 vminpu=0.6 daily="RU2_SA" 

New "Load.BT_2833911_M1" bus1="UC2833911.1.4" phases=1 conn=Wye model=2 kv=0.219393102 kw = 0.0004475 pf=0.92 status=variable vmaxpu=1.5 vminpu=0.6 daily="CO2_SA"  
...